
RUNSPEC

TNAVCTRL
 LONGNAMES           YES /
 E1_E3_BINARY_EXPORT ON  /
/


TITLE
DYNAMICMODEL

START
 01 JAN 2024 /


OIL


WATER


GAS


DISGAS


METRIC


ENDSCALE
 /


DIMENS
 10 10 10 /


TABDIMS
 1 1 50 50 1* 5 6* 1 /


WELLDIMS
 2 10 1 2 /

EQLDIMS
 1 1* 2 /


SMRYDIMS
 95 /


UNIFOUT


GRID
SPECGRID
 10 10 10 /

NOECHO

COORD
    2*0   2000    2*0   2020    100      0   2000    100      0   2020    200      0   2000    200      0   2020    300      0
   2000    300      0   2020    400      0   2000    400      0   2020    500      0   2000    500      0   2020    600      0
   2000    600      0   2020    700      0   2000    700      0   2020    800      0   2000    800      0   2020    900      0
   2000    900      0   2020   1000      0   2000   1000      0   2020      0    100   2000      0    100   2020  2*100   2000
  2*100   2020    200    100   2000    200    100   2020    300    100   2000    300    100   2020    400    100   2000    400
    100   2020    500    100   2000    500    100   2020    600    100   2000    600    100   2020    700    100   2000    700
    100   2020    800    100   2000    800    100   2020    900    100   2000    900    100   2020   1000    100   2000   1000
    100   2020      0    200   2000      0    200   2020    100    200   2000    100    200   2020  2*200   2000  2*200   2020
    300    200   2000    300    200   2020    400    200   2000    400    200   2020    500    200   2000    500    200   2020
    600    200   2000    600    200   2020    700    200   2000    700    200   2020    800    200   2000    800    200   2020
    900    200   2000    900    200   2020   1000    200   2000   1000    200   2020      0    300   2000      0    300   2020
    100    300   2000    100    300   2020    200    300   2000    200    300   2020  2*300   2000  2*300   2020    400    300
   2000    400    300   2020    500    300   2000    500    300   2020    600    300   2000    600    300   2020    700    300
   2000    700    300   2020    800    300   2000    800    300   2020    900    300   2000    900    300   2020   1000    300
   2000   1000    300   2020      0    400   2000      0    400   2020    100    400   2000    100    400   2020    200    400
   2000    200    400   2020    300    400   2000    300    400   2020  2*400   2000  2*400   2020    500    400   2000    500
    400   2020    600    400   2000    600    400   2020    700    400   2000    700    400   2020    800    400   2000    800
    400   2020    900    400   2000    900    400   2020   1000    400   2000   1000    400   2020      0    500   2000      0
    500   2020    100    500   2000    100    500   2020    200    500   2000    200    500   2020    300    500   2000    300
    500   2020    400    500   2000    400    500   2020  2*500   2000  2*500   2020    600    500   2000    600    500   2020
    700    500   2000    700    500   2020    800    500   2000    800    500   2020    900    500   2000    900    500   2020
   1000    500   2000   1000    500   2020      0    600   2000      0    600   2020    100    600   2000    100    600   2020
    200    600   2000    200    600   2020    300    600   2000    300    600   2020    400    600   2000    400    600   2020
    500    600   2000    500    600   2020  2*600   2000  2*600   2020    700    600   2000    700    600   2020    800    600
   2000    800    600   2020    900    600   2000    900    600   2020   1000    600   2000   1000    600   2020      0    700
   2000      0    700   2020    100    700   2000    100    700   2020    200    700   2000    200    700   2020    300    700
   2000    300    700   2020    400    700   2000    400    700   2020    500    700   2000    500    700   2020    600    700
   2000    600    700   2020  2*700   2000  2*700   2020    800    700   2000    800    700   2020    900    700   2000    900
    700   2020   1000    700   2000   1000    700   2020      0    800   2000      0    800   2020    100    800   2000    100
    800   2020    200    800   2000    200    800   2020    300    800   2000    300    800   2020    400    800   2000    400
    800   2020    500    800   2000    500    800   2020    600    800   2000    600    800   2020    700    800   2000    700
    800   2020  2*800   2000  2*800   2020    900    800   2000    900    800   2020   1000    800   2000   1000    800   2020
      0    900   2000      0    900   2020    100    900   2000    100    900   2020    200    900   2000    200    900   2020
    300    900   2000    300    900   2020    400    900   2000    400    900   2020    500    900   2000    500    900   2020
    600    900   2000    600    900   2020    700    900   2000    700    900   2020    800    900   2000    800    900   2020
  2*900   2000  2*900   2020   1000    900   2000   1000    900   2020      0   1000   2000      0   1000   2020    100   1000
   2000    100   1000   2020    200   1000   2000    200   1000   2020    300   1000   2000    300   1000   2020    400   1000
   2000    400   1000   2020    500   1000   2000    500   1000   2020    600   1000   2000    600   1000   2020    700   1000
   2000    700   1000   2020    800   1000   2000    800   1000   2020    900   1000   2000    900   1000   2020 2*1000   2000
 2*1000   2020 /

NOECHO

ZCORN
 400*2000 800*2002 800*2004 800*2006 800*2008 800*2010 800*2012 800*2014 800*2016 800*2018 400*2020 /

INIT


NOECHO

NTG
 1000*0.8 /

NOECHO

PERMX
 1000*150 /

NOECHO

PERMY
 1000*150 /

NOECHO

PERMZ
 1000*15.0 /

NOECHO

PORO
 1000*0.3/
/




PROPS
PVTO
-- gor                 pressure            fvf                viscosity
    0.6606366731056005   1.01325           1.0746891566156305 3.5057387613909416
                        16.819131578947368 1.0745193059437457 3.564265453282669
                        32.625013157894738 1.0743494821161353 3.622792145174397
                        48.4308947368421   1.074179685128557  3.6813188370661247
                        64.23677631578947  1.0740099149767684 3.7398455289578527
                        80.04265789473682  1.0738401716565285 3.79837222084958
                        95.8485394736842   1.0736704551635968 3.856898912741308
                       111.65442105263158  1.0735007654937328 3.9154256046330357
                       127.46030263157893  1.0733311026426975 3.973952296524763
                       143.2661842105263   1.0731614666062526 4.032478988416491
                       159.07206578947365  1.0729918573801596 4.091005680308219
                       174.87794736842106  1.0728222749601817 4.149532372199946
                       190.6838289473684   1.072652719342082  4.208059064091675
                       206.48971052631576  1.0724831905216246 4.266585755983402
                       222.29559210526316  1.0723136884945744 4.32511244787513
                       238.1014736842105   1.0721442132566968 4.383639139766857
                       253.90735526315786  1.0719747648037575 4.442165831658585
                       269.71323684210526  1.0718053431315236 4.500692523550313
                       285.5191184210526   1.0716359482357623 4.559219215442041
                       301.325             1.0714665801122419 4.617745907333768  /
    6.541898058077467   16.819131578947368 1.0902257100999698 3.154365533131113
                        32.625013157894738 1.090053403932901  3.205516955506086
                        48.4308947368421   1.089881124998189  3.256668377881059
                        64.23677631578947  1.0897088732915297 3.3078198002560317
                        80.04265789473682  1.0895366488086194 3.3589712226310048
                        95.8485394736842   1.0893644515451558 3.4101226450059776
                       111.65442105263158  1.0891922814968367 3.4612740673809507
                       127.46030263157893  1.0890201386593613 3.5124254897559235
                       143.2661842105263   1.0888480230284286 3.5635769121308966
                       159.07206578947365  1.0886759345997388 3.614728334505869
                       174.87794736842106  1.088503873368993  3.6658797568808425
                       190.6838289473684   1.0883318393318922 3.717031179255815
                       206.48971052631576  1.0881598324841389 3.768182601630788
                       222.29559210526316  1.0879878528214356 3.8193340240057616
                       238.1014736842105   1.087815900339486  3.870485446380734
                       253.90735526315786  1.0876439750339946 3.921636868755707
                       269.71323684210526  1.0874720769006659 3.97278829113068
                       285.5191184210526   1.087300205935205  4.023939713505653
                       301.325             1.087128362133319  4.075091135880625  /
   13.735559504515818   32.625013157894738 1.1097168256533415 2.801550782363571
                        48.4308947368421   1.1095414389870866 2.8456601580710876
                        64.23677631578947  1.1093660800400496 2.8897695337786044
                        80.04265789473682  1.10919074880785   2.9338789094861208
                        95.8485394736842   1.1090154452861072 2.9779882851936376
                       111.65442105263158  1.108840169470442  3.022097660901154
                       127.46030263157893  1.1086649213564753 3.0662070366086704
                       143.2661842105263   1.108489700939829  3.110316412316187
                       159.07206578947365  1.1083145082161255 3.1544257880237036
                       174.87794736842106  1.108139343180988  3.1985351637312204
                       190.6838289473684   1.107964205830041  3.2426445394387368
                       206.48971052631576  1.1077890961589086 3.2867539151462537
                       222.29559210526316  1.107614014163216  3.33086329085377
                       238.1014736842105   1.1074389598385897 3.3749726665612869
                       253.90735526315786  1.107263933180656  3.419082042268803
                       269.71323684210526  1.1070889341850426 3.4631914179763196
                       285.5191184210526   1.106913962847377  3.5073007936838365
                       301.325             1.1067390191632887 3.5514101693913528 /
   21.665077759948955   48.4308947368421   1.1317634340024286 2.4850404032884039
                        64.23677631578947  1.131584562950742  2.5231510131586658
                        80.04265789473682  1.1314057201689678 2.561261623028927
                        95.8485394736842   1.131226905652638  2.599372232899189
                       111.65442105263158  1.1310481193972855 2.637482842769451
                       127.46030263157893  1.1308693613984436 2.675593452639713
                       143.2661842105263   1.1306906316516466 2.7137040625099746
                       159.07206578947365  1.1305119301524292 2.7518146723802365
                       174.87794736842106  1.130333256896327  2.7899252822504985
                       190.6838289473684   1.1301546118788764 2.8280358921207604
                       206.48971052631576  1.1299759950956144 2.8661465019910219
                       222.29559210526316  1.1297974065420784 2.904257111861284
                       238.1014736842105   1.129618846213807  2.9423677217315458
                       253.90735526315786  1.1294403141063394 2.9804783316018077
                       269.71323684210526  1.1292618102152155 3.0185889414720696
                       285.5191184210526   1.1290833345359755 3.056699551342331
                       301.325             1.1289048870641605 3.094810161212593  /
   27.816307833677699   60                 1.1492359575400522 2.278950394256453
                        64.23677631578947  1.1491872680146312 2.2881634500182828
                        80.04265789473682  1.14900564319      2.322534032153815
                        95.8485394736842   1.1488240470705227 2.3569046142893477
                       111.65442105263158  1.1486424796516357 2.3912751964248799
                       127.46030263157893  1.1484609409288123 2.425645778560412
                       143.2661842105263   1.1482794308975167 2.4600163606959448
                       159.07206578947365  1.1480979495532147 2.494386942831477
                       174.87794736842106  1.1479164968913723 2.5287575249670097
                       190.6838289473684   1.147735072907456  2.563128107102542
                       206.48971052631576  1.1475536775969338 2.597498689238074
                       222.29559210526316  1.147372310955274  2.6318692713736069
                       238.1014736842105   1.1471909729779453 2.666239853509139
                       253.90735526315786  1.1470096636604175 2.700610435644671
                       269.71323684210526  1.146828382998161  2.734981017780204
                       285.5191184210526   1.1466471309866469 2.769351599915736
                       301.325             1.1464659076213473 2.8037221820512685 /
/


PVTOPTS
 B1 BMU1 B1 BMU1 /

PVTW
-- pref    fvf compressibility         viscosity viscosibility
   1.01325 1   0.000039476930668640514 0.3       /


PVDG
-- pressure            fvf                   viscosity
     1.01325           1.1628578781163404    0.011914749885106147
    16.819131578947368 0.0700550881281068    0.0121656343455
    32.625013157894738 0.03611541056853981   0.012549878756289169
    48.4308947368421   0.02432880398769626   0.013025714776269808
    64.23677631578947  0.018342541649490637  0.01358314162589009
    80.04265789473682  0.01472047250793328   0.014219709232874814
    95.8485394736842   0.01229299634059507   0.014936450969687885
   111.65442105263158  0.010552790779739675  0.015736524612888004
   127.46030263157893  0.009244178153312032  0.016624647334159988
   143.2661842105263   0.008224311630090938  0.017606844047960487
   159.07206578947365  0.007407119151647756  0.018690344913032926
   174.87794736842106  0.0067376462426053719 0.019883564969393948
   190.6838289473684   0.006179159247565775  0.021196135307888256
   206.48971052631576  0.005706171711888858  0.022638970854440455
   222.29559210526316  0.005300445833597277  0.024224367377585679
   238.1014736842105   0.004948586528129153  0.025966124289574234
   253.90735526315786  0.004640534118360569  0.027879692089270885
   269.71323684210526  0.004368587017815366  0.029982344731977526
   285.5191184210526   0.0041267490300379949 0.03229337821421123
   301.325             0.003910282070858316  0.03483433744039961  /




DENSITY
-- oil water gas  (sc)
   900 1030  1.22 /


ROCK
-- pressure rock-compres (rock-matrix-compres block-compres porosity Poisson-coef)
   200      0.00005      /


STCOND
 15.56 1.01325 /

COREYWO
-- SWL SWU SWCR SOWCR KROLW KRORW KRWR KRWU PCOW NOW NW NP SPC0
   0   1   0    0     1     1     1    1    0    4   4  4  -1   /


COREYGO
-- SGL SGU SGCR SOGCR KROLG KRORG KRGR KRGU PCOG NOG NG NPG SPCG
   0   1   0    0     1     1     1    1    0    4   4  4   -1   /




EQUIL
-- depth pres depth-wo pres-wo depth-go pres-go rsvd rvvd accuracy
   2004  200  2016     0       2004     0       0    /


RSVD
-- depth rs
   -100  100
    100  200
/


RPTMAPD
 01 JAN 2024 /
 01 FEB 2024 /
 01 MAR 2024 /
 01 APR 2024 /
 01 MAY 2024 /
 01 JUN 2024 /
 01 JUL 2024 /
 01 AUG 2024 /
 01 SEP 2024 /
 01 OCT 2024 /
 01 NOV 2024 /
 01 DEC 2024 /
 01 JAN 2025 /
 /


RPTGRAPHD
 01 JAN 2024 /
 01 FEB 2024 /
 01 MAR 2024 /
 01 APR 2024 /
 01 MAY 2024 /
 01 JUN 2024 /
 01 JUL 2024 /
 01 AUG 2024 /
 01 SEP 2024 /
 01 OCT 2024 /
 01 NOV 2024 /
 01 DEC 2024 /
 01 JAN 2025 /
 /




SCHEDULE
RPTSCHED
'WELLS=2' 'SUMMARY=2' 'fip=3' 'RESTART=1' 'WELSPECS' 'CPU=2' /

--wname
WELLTRACK 'PROD'
-- X Y Z    MD
   0 0    0    0
   0 0 2020 2020 /


--wname
WELLTRACK 'INJ'
-- X    Y    Z    MD
   1000 1000    0    0
   1000 1000 2020 2020 /


WELSPECS
-- wname  gname iw jw ref.depth phase radius inflow_flag shut-in_flag crossflow_ability_flag PVT_n density_type filt.tbl reserved reserved well_model_type polymer_mixing_tbl.n
   'PROD' 1*    2*    /
   'INJ'  1*    2*    /
/

COMPDATMD
-- wname|stage_name branch|stage_num mdl|delta1 mdu|delta2 md_type status filt.tbl pi diameter Kh skin D-factor cf_mult DP completion
   'PROD'           1*               2000       2020       MD      OPEN   2*          0.16     1* 0    1*       1       1* 0          /
   'INJ'            1*               2000       2020       MD      OPEN   2*          0.16     1* 0    1*       1       1* 0          /
/

COMPORD
-- wname  sort
   'PROD' INPUT /
   'INJ'  INPUT /
/

WCONPROD
-- wname  status control orate wrate grate lrate lrate(rc) BHP THP VFP_n ALQ wgrate mlrate steam sat.pressure sat.temperature calorific_rate linearly_combined_rate NGL_rate
   'PROD' OPEN   BHP     5*                                100 /
/

WCONINJE
-- wname injector_type status control sc.rate lrate(rc) BHP THP VFP_n oil_concentration gas_volume_ratio sc_oil_proport sc_water_proport sc_gas_proport
   'INJ' WATER         OPEN   RATE    1000    1*        450 /
/

DATES
 01 FEB 2024 /
 /



DATES
 01 MAR 2024 /
 /



DATES
 01 APR 2024 /
 /



DATES
 01 MAY 2024 /
 /



DATES
 01 JUN 2024 /
 /



DATES
 01 JUL 2024 /
 /



DATES
 01 AUG 2024 /
 /



DATES
 01 SEP 2024 /
 /



DATES
 01 OCT 2024 /
 /



DATES
 01 NOV 2024 /
 /



DATES
 01 DEC 2024 /
 /



DATES
 01 JAN 2025 /
 /


END

