-- Этот файл был сгенерирован тНавигатор v23.1-3979-g6d70bbb6d3f7.
-- Copyright (C) Рок Флоу Динамикс 2005-2023.
-- Все права защищены.

-- Model name: 
-- DynamicModel

-- Project: 
-- D:/diplom/HDM_models/sintetic_model — копия/BOXTemplate/BOXTemplate.snp


RUNSPEC

TNAVCTRL
 LONGNAMES           YES /
 E1_E3_BINARY_EXPORT ON  /
/


TITLE
DYNAMICMODEL

START
 01 JAN 2024 /


OIL


WATER


GAS


DISGAS


METRIC


ENDSCALE
 /


DIMENS
 10 10 10 /


TABDIMS
 1 1 50 50 1* 5 6* 1 /


WELLDIMS
 0 1* 1 0 /

EQLDIMS
 1 1* 2 /


SMRYDIMS
 51 /


UNIFOUT


GRID
INCLUDE
'INCLUDE/BOSTemplate_GRID.inc' /


EDIT
INCLUDE
'INCLUDE/BOSTemplate_EDIT.inc' /


PROPS
INCLUDE
'INCLUDE/BOSTemplate_PROPS.inc' /


REGIONS
INCLUDE
'INCLUDE/BOSTemplate_REGIONS.inc' /


SOLUTION
INCLUDE
'INCLUDE/BOSTemplate_SOLUTION.inc' /


SUMMARY
INCLUDE
'INCLUDE/BOSTemplate_SUMMARY.inc' /


SCHEDULE
INCLUDE
'INCLUDE/BOSTemplate_SCHEDULE.inc' /

